omf/solvers/opendss/ieeeLVTestCase.clean.reduced.dss
clear
new object=circuit.lvtest
edit object=vsource.source bus1=sourcebus.1.2.3 basekv=11 pu=1.05 isc3=3000 isc1=5
new object=linecode.2c_007 nphases=3 r1=3.97 x1=0.099 r0=3.97 x0=0.099 c1=0 c0=0 units=km
new object=linecode.2c_0225 nphases=3 r1=1.257 x1=0.085 r0=1.257 x0=0.085 c1=0 c0=0 units=km
new object=linecode.2c_16 nphases=3 r1=1.15 x1=0.088 r0=1.2 x0=0.088 c1=0 c0=0 units=km
new object=linecode.35_sac_xsc nphases=3 r1=0.868 x1=0.092 r0=0.76 x0=0.092 c1=0 c0=0 units=km
new object=linecode.4c_06 nphases=3 r1=0.469 x1=0.075 r0=1.581 x0=0.091 c1=0 c0=0 units=km
new object=linecode.4c_1 nphases=3 r1=0.274 x1=0.073 r0=0.959 x0=0.079 c1=0 c0=0 units=km
new object=linecode.4c_35 nphases=3 r1=0.089 x1=0.0675 r0=0.319 x0=0.076 c1=0 c0=0 units=km
new object=linecode.4c_185 nphases=3 r1=0.166 x1=0.068 r0=0.58 x0=0.078 c1=0 c0=0 units=km
new object=linecode.4c_70 nphases=3 r1=0.446 x1=0.071 r0=1.505 x0=0.083 c1=0 c0=0 units=km
new object=linecode.4c_95_sac_xc nphases=3 r1=0.322 x1=0.074 r0=0.804 x0=0.093 c1=0 c0=0 units=km
new object=loadshape.default npts=24 interval=1 mult=[0.677,0.6256,0.6087,0.5833,0.58028,0.6025,0.657,0.7477,0.832,0.88,0.94,0.989,0.985,0.98,0.9898,0.999,1,0.958,0.936,0.913,0.876,0.876,0.828,0.756] useactual=no
new object=loadshape.shape_1 npts=1440 minterval=1 mult=[0.036,0.036,0.036,0.036,0.036,0.036,0.036,0.036,0.036,0.036,0.036,0.036,0.036,0.036,0.036,0.036,0.036,0.036,0.036,0.036,0.036,0.036,0.036,0.036,0.036,0.036,0.036,0.036,0.036,0.036,0.036,0.036,0.036,0.036,0.036,0.036,0.036,0.036,0.036,0.036,0.036,0.036,0.036,0.036,0.036,0.036,0.036,0.036,0.192,0.192,0.192,0.192,0.192,0.192,0.192,0.192,0.192,0.192,0.192,0.192,0.192,0.192,0.192,0.192,0.192,0.192,0.308,0.308,0.308,0.308,0.152,0.152,0.152,0.152,0.152,0.152,0.152,0.152,0.152,0.152,0.152,0.152,0.152,0.152,0.036,0.036,0.036,0.036,0.036,0.036,0.036,0.036,0.036,0.036,0.036,0.036,0.036,0.036,0.036,0.036,0.036,0.036,0.036,0.036,0.036,0.036,0.036,0.036,0.036,0.036,0.036,0.036,0.036,0.036,0.036,0.036,0.036,0.036,0.036,0.036,0.036,0.036,0.036,0.036,0.036,0.036,0.036,0.036,0.036,0.036,0.036,0.036,0.036,0.036,0.036,0.036,0.036,0.036,0.036,0.036,0.036,0.036,0.036,0.036,0.036,0.076,0.192,0.192,0.192,0.192,0.348,0.348,0.348,0.348,0.348,0.348,0.348,0.348,0.348,0.308,0.348,0.348,0.348,0.408,0.292,0.292,0.292,0.252,0.252,0.192,0.192,0.252,0.096,0.096,0.096,0.036,0.036,0.036,0.126,0.126,0.126,0.126,0.191,0.251,0.321,0.321,0.321,0.321,0.321,0.381,0.321,0.321,0.321,0.321,0.321,0.321,0.311,0.311,0.311,0.311,0.311,0.311,0.311,0.311,0.311,0.261,0.261,0.261,0.261,0.261,0.261,0.261,0.261,0.261,0.261,0.301,0.241,0.241,0.241,0.241,0.241,0.241,0.241,0.301,0.301,0.301,0.301,0.301,0.236,0.236,0.236,0.236,0.236,0.236,0.236,0.236,0.236,0.276,0.432,0.472,0.192,0.192,0.192,0.192,0.192,0.192,0.308,0.308,0.308,0.308,0.308,0.308,0.308,0.308,0.308,0.308,0.308,0.308,0.308,0.308,0.152,0.152,0.152,0.152,0.036,0.036,0.036,0.036,0.036,0.036,0.036,0.036,0.036,0.036,0.036,0.036,0.036,0.036,0.036,0.036,0.036,0.036,0.036,0.036,0.036,0.036,0.036,0.036,0.036,0.036,0.036,0.036,0.036,0.036,0.036,0.036,0.036,0.036,0.036,0.036,0.036,0.036,0.036,0.036,0.152,0.152,0.152,0.152,0.152,0.152,0.152,0.152,0.152,0.152,0.152,0.152,0.152,0.152,0.152,0.152,0.152,0.152,0.036,0.036,0.036,0.036,0.036,0.036,0.036,0.036,0.036,0.036,0.036,0.036,0.036,0.036,0.036,0.036,0.036,0.036,0.036,0.036,0.036,0.036,0.036,0.036,0.036,0.036,0.036,0.036,0.036,0.036,0.036,0.036,0.036,0.036,0.036,0.036,0.036,0.036,0.036,0.036,0.152,0.152,0.152,0.152,0.152,0.152,0.152,0.152,0.152,0.152,0.152,0.152,0.152,0.152,0.152,0.152,0.152,0.152,0.036,0.036,0.036,0.036,0.036,0.036,0.076,0.232,0.232,0.232,0.192,0.192,0.192,0.232,0.232,0.232,0.272,0.272,0.272,0.272,0.272,0.272,0.272,0.272,0.272,0.272,0.272,0.272,0.272,0.116,0.116,0.221,0.221,0.221,0.281,0.281,0.341,0.341,0.341,0.637,0.637,0.753,0.753,0.457,0.457,0.457,0.517,0.357,0.357,0.457,0.573,0.473,0.473,0.513,0.583,0.583,0.603,0.603,0.663,2.489,2.449,2.449,2.389,2.389,2.429,2.319,2.319,2.359,2.359,2.359,2.359,2.359,2.319,2.319,2.319,2.319,2.319,2.475,2.525,2.525,2.475,2.475,2.525,2.565,2.515,2.515,0.573,0.633,0.573,0.573,0.573,0.573,0.573,0.573,0.573,0.573,0.508,0.508,0.548,0.392,0.392,0.392,0.392,0.392,0.332,0.432,0.432,0.432,0.432,0.432,0.432,0.492,0.492,0.552,0.492,0.492,0.492,0.432,0.432,0.472,0.472,0.472,0.594,0.594,0.594,0.594,0.654,0.654,0.654,0.654,0.654,0.654,0.654,0.654,0.654,0.654,0.77,0.77,0.93,0.89,0.85,0.79,0.79,0.946,0.846,0.846,0.846,1.142,1.142,1.142,1.142,0.846,0.846,0.846,0.73,0.73,0.73,0.73,0.73,0.73,0.73,0.73,0.73,0.73,0.73,0.574,0.574,0.574,0.574,0.574,0.574,0.574,0.574,0.574,0.574,0.574,0.574,0.574,0.574,0.574,0.574,0.574,0.574,0.574,0.574,0.574,0.574,1.664,1.664,1.664,0.434,0.434,0.434,0.434,0.55,0.55,0.55,0.55,0.55,0.55,0.55,0.55,0.55,0.55,0.55,0.55,0.55,0.55,0.55,0.55,0.706,0.706,0.59,0.59,0.59,0.59,0.59,0.59,0.59,0.59,0.59,0.59,0.59,0.59,0.59,0.59,0.59,0.59,0.59,0.59,0.59,0.59,0.434,0.434,0.434,0.434,0.434,0.434,0.434,0.434,0.434,0.434,0.434,0.434,0.534,0.534,0.534,0.434,0.434,2.648,2.648,2.648,0.434,0.434,0.434,0.434,0.434,0.374,0.374,0.374,0.374,0.374,0.374,0.374,0.374,0.374,0.374,0.374,0.49,0.49,0.49,0.49,0.49,0.49,0.49,0.49,0.49,0.49,0.49,0.49,0.49,0.49,0.49,0.49,0.49,0.49,0.374,0.374,0.374,0.374,0.374,0.374,0.374,0.374,0.53,0.53,0.53,0.53,0.53,0.53,0.53,0.53,0.53,0.53,0.53,0.53,0.53,0.53,0.53,0.53,0.53,0.53,0.53,0.53,0.53,0.53,0.374,0.374,0.374,0.374,0.036,0.036,0.036,0.036,0.036,0.036,0.036,0.036,0.036,0.036,0.036,0.036,0.036,0.036,0.036,0.036,0.036,0.036,0.036,0.036,0.036,0.036,0.036,0.036,0.036,0.036,0.036,0.036,0.036,0.036,0.036,0.036,0.036,0.036,0.036,0.036,0.036,0.036,0.036,0.036,0.192,0.192,0.192,0.192,0.192,0.192,0.192,0.192,0.192,0.192,0.192,0.192,0.192,0.192,0.192,0.192,0.192,0.192,0.192,0.192,0.192,0.192,0.036,0.036,0.036,0.036,0.036,0.036,0.036,0.036,0.036,0.036,0.036,0.036,0.036,0.036,0.036,0.036,0.036,0.036,0.036,0.036,0.036,0.036,0.036,0.036,0.036,0.036,0.036,0.036,0.036,0.036,0.036,0.036,0.036,0.036,0.036,0.036,0.036,0.036,0.036,0.036,0.036,0.036,0.036,0.036,0.036,0.152,0.152,0.152,0.152,0.152,0.152,0.152,0.152,0.152,0.152,0.152,0.152,0.152,0.152,0.152,0.152,0.152,0.152,0.192,0.192,0.192,0.192,0.192,0.192,0.192,0.192,0.192,0.192,0.192,0.192,0.192,0.192,0.192,0.192,0.192,0.192,0.192,0.192,0.192,0.192,0.036,0.036,0.036,0.036,0.036,0.036,0.036,0.036,0.036,0.036,0.036,0.036,0.036,0.036,0.036,0.036,0.036,0.036,0.036,0.036,0.036,0.036,0.036,0.036,0.036,0.036,0.036,0.036,0.036,0.036,0.036,0.152,0.152,0.152,0.152,0.152,0.152,0.152,0.152,0.152,0.152,0.152,0.152,0.152,0.152,0.308,0.308,0.308,0.308,0.192,0.192,0.192,0.192,0.192,0.192,0.192,0.192,0.192,0.192,0.192,0.192,0.192,0.192,0.192,0.192,0.192,0.192,0.036,0.036,0.036,0.036,0.036,0.036,0.036,0.036,0.036,0.036,0.036,0.036,0.036,0.036,0.036,0.036,0.274,0.274,0.274,0.274,0.274,0.274,0.274,0.274,0.274,0.274,0.274,0.352,0.352,0.352,0.352,0.352,0.352,0.352,0.352,0.352,0.352,0.352,0.352,0.352,0.392,0.392,0.392,0.392,0.442,0.492,0.376,0.376,0.376,0.532,0.532,0.532,0.632,0.532,0.532,0.532,0.532,0.532,0.532,0.532,0.632,0.632,0.532,0.532,0.532,0.532,0.572,0.572,0.572,0.572,0.572,0.416,0.456,0.456,0.484,0.544,0.544,0.504,0.569,0.569,0.569,0.509,0.387,0.387,0.447,0.387,0.387,0.309,0.309,0.259,0.259,0.259,0.259,0.259,0.319,0.299,0.299,0.299,0.299,0.339,0.339,0.339,0.299,0.379,0.379,0.319,0.435,0.435,0.435,0.557,0.557,2.771,2.771,2.771,0.617,0.617,0.713,0.713,0.713,0.713,0.663,0.663,0.663,0.663,0.723,0.823,0.823,1.119,1.119,1.119,1.119,0.823,0.823,0.823,0.923,1.423,1.423,1.423,1.145,1.245,1.205,1.205,1.205,1.205,1.145,1.145,1.145,1.117,1.117,1.117,1.117,1.017,1.017,1.017,1.017,1.117,1.117,1.117,1.117,1.117,1.117,1.117,1.189,1.189,1.189,1.305,1.345,1.345,1.345,2.435,2.435,2.435,1.345,1.305,1.305,1.305,1.305,1.305,1.305,1.305,1.305,1.305,1.205,1.029,1.029,0.989,1.067,1.067,1.067,1.223,1.183,1.183,1.243,1.183,1.183,1.123,1.243,1.243,1.243,1.243,1.243,1.243,1.183,1.183,1.183,1.183,1.183,1.183,1.223,1.183,1.183,1.027,1.027,0.527,0.627,0.627,0.667,0.667,0.667,0.545,0.545,0.661,0.721,0.721,0.721,0.721,0.721,0.721,0.721,0.661,0.661,0.661,0.661,0.621,0.621,0.531,0.531,0.531,0.531,0.455,0.455,0.455,2.769,2.769,2.709,0.495,1.507,1.467,1.467,0.377,0.377,0.305,0.305,0.305,0.305,0.305,0.305,0.305,0.305,0.305,0.305,0.305,0.345,0.345,0.345,0.345,0.345,0.345,0.345,0.345,0.345,0.345,0.501,0.501,0.501,0.677,0.677,0.677,0.677,0.677,0.677,0.777,0.717,0.677,0.577,0.577,0.577,0.577,0.637,0.737,0.637,0.637,0.637,0.521,0.365,0.365,0.487,0.487,0.487,0.487,0.587,0.587,0.522,0.522,0.422,0.922,0.922,0.922,1.062,1.062,0.962,0.462,0.562,0.562,0.462,0.502,0.502,0.502,0.502,0.502,0.502,0.442,0.442,0.454,0.426,0.426,0.426,0.426,0.566,0.566,0.566,0.526,0.526,0.526,0.526,0.526,0.526,0.526,0.67,0.72,0.62,0.62,0.62,0.66,0.6,0.6,0.6,0.6,0.756,0.756,0.756,0.816,0.816,0.816,0.876,0.816,0.7,0.74,0.7,0.7,0.7,0.7,0.7,0.8,0.76,0.76,0.76,0.76,0.76,0.76,0.482,0.522,0.482,0.482,0.522,0.522,0.522,0.522,0.482,0.47,0.42,0.42,0.42,0.42,0.42,0.42,0.42,0.42,0.32,0.32,0.32,0.32,0.32,0.32,0.32,0.32,0.32,0.32,0.32,0.32,0.38,0.38,0.38,0.38,0.38,0.38,0.264,0.264,0.264,0.264,0.304,0.276,0.276,0.276,0.276,0.276,0.276,0.316,0.876,0.936,0.976,0.976,0.876,0.376,0.458,0.398,0.398,0.358,0.298,0.454,0.454,0.454,0.554,0.554,0.554,0.554,0.554,0.554,0.554,0.554,0.554,0.494,0.554,0.554,0.554,0.554,0.554,0.554,0.554,0.494,0.564,0.408,0.408,0.408,0.408,0.408,0.238,0.238,0.238,0.298,0.454,0.454,0.454,0.454,0.514,0.392,0.332,0.332,0.332,0.332,0.332,0.332,0.332,0.332,0.392,0.392,0.392,0.392,0.276,0.276,0.216,0.216,0.216,0.216,0.216,2.43,0.036,0.036,0.036,0.036,0.036,0.036,0.036,0.036,0.036,0.192,0.192,0.192,0.192,0.192,0.192,0.192,0.192,0.192,0.192,0.192,0.192,0.192,0.192,0.192,0.192,0.192,0.192,0.192,0.192,0.192,0.192,0.036,0.036,0.036,0.036,0.036,0.036,0.036,0.036,0.036] useactual=no
new object=loadshape.shape_2 npts=1440 minterval=1 mult=[0.044,0.044,0.044,0.044,0.044,0.044,0.044,0.044,0.044,0.044,0.044,0.044,0.044,0.044,0.044,0.044,0.044,0.044,0.044,0.044,0.044,0.044,0.044,0.044,0.044,0.044,0.044,0.044,0.044,0.044,0.044,0.044,0.044,0.044,0.044,0.044,0.044,0.044,0.044,0.044,0.044,0.198,0.198,0.198,0.198,0.198,0.198,0.198,0.198,0.198,0.198,0.198,0.198,0.198,0.198,0.198,0.198,0.198,0.198,0.198,0.198,0.044,0.044,0.044,0.044,0.044,0.044,0.044,0.044,0.044,0.044,0.044,0.044,0.044,0.044,0.044,0.044,0.044,0.044,0.044,0.044,0.044,0.044,0.044,0.193,0.193,0.193,0.193,0.393,0.393,0.393,0.393,0.393,0.393,0.393,0.393,0.393,0.393,0.244,0.244,0.244,0.244,0.244,0.244,0.244,0.341,0.341,0.341,0.341,0.341,0.141,0.141,0.141,0.141,0.141,0.141,0.141,0.141,0.141,0.141,0.141,0.141,0.141,0.044,0.044,0.044,0.044,0.044,0.044,0.044,0.044,0.044,0.044,0.044,0.044,0.044,0.044,0.044,0.044,0.044,0.044,0.198,0.198,0.198,0.198,0.198,0.198,0.198,0.198,0.198,0.198,0.198,0.198,0.198,0.198,0.198,0.198,0.198,0.198,0.198,0.198,0.044,0.044,0.044,0.044,0.044,0.244,0.393,0.393,0.393,0.393,0.393,0.393,0.393,0.393,0.393,0.393,0.393,0.393,0.393,0.393,0.244,0.244,0.244,0.244,0.244,0.244,0.244,0.044,0.044,0.044,0.044,0.044,0.044,0.044,0.044,0.044,0.044,0.044,0.044,0.044,0.044,0.044,0.044,0.044,0.044,0.044,0.044,0.044,0.044,0.044,0.044,0.044,0.141,0.141,0.141,0.141,0.141,0.141,0.141,0.141,0.141,0.141,0.141,0.141,0.295,0.295,0.295,0.295,0.295,0.295,0.198,0.198,0.198,0.198,0.198,0.198,0.198,0.198,0.198,0.398,0.398,0.547,0.547,0.547,0.393,0.393,0.393,0.393,0.393,0.393,0.393,0.393,0.393,0.393,0.393,0.244,0.244,0.244,0.244,0.244,0.244,0.044,0.044,0.044,0.044,0.044,0.044,0.044,0.044,0.044,0.044,0.044,0.044,0.044,0.044,0.044,0.044,0.044,0.044,0.044,0.044,0.044,0.044,0.044,0.044,0.198,0.198,0.198,0.198,0.198,0.295,0.295,0.295,0.295,0.295,0.295,0.295,0.295,0.295,0.295,0.295,0.295,0.295,0.295,0.295,0.141,0.141,0.141,0.044,0.044,0.044,0.044,0.044,0.044,0.044,0.044,0.044,0.044,0.044,0.044,0.044,0.044,0.044,0.044,0.044,0.044,0.244,0.393,0.393,0.393,0.393,0.393,0.393,0.393,0.393,0.393,0.393,0.393,0.393,0.393,0.393,0.244,0.244,0.244,0.244,0.244,0.244,0.244,0.044,0.044,0.044,0.044,0.141,0.141,0.141,0.141,0.141,0.141,0.141,0.141,0.141,0.141,0.141,0.141,0.141,0.141,0.141,0.141,0.141,0.141,0.044,0.198,0.198,0.198,0.198,0.198,0.198,0.198,0.198,0.198,0.198,0.198,0.198,0.198,0.198,0.198,0.198,0.198,0.198,0.198,0.198,0.044,0.044,0.044,0.044,0.044,0.044,0.044,0.044,0.044,0.044,0.044,0.193,0.193,0.193,0.193,0.193,0.193,0.193,0.193,0.193,0.193,0.193,0.193,0.193,0.193,0.044,0.044,0.044,0.044,0.044,0.044,0.044,0.044,0.044,0.044,0.044,0.044,0.044,0.044,0.044,0.044,0.044,0.044,0.044,0.044,0.044,0.244,0.244,0.244,0.244,0.341,0.341,0.341,0.341,0.341,0.341,0.341,0.341,0.341,0.341,0.341,0.341,0.341,0.341,0.341,0.495,0.495,0.495,0.198,0.198,0.198,0.198,0.198,0.198,0.198,0.198,0.198,0.198,0.198,0.198,0.198,0.198,0.198,0.198,0.198,0.044,0.193,0.193,0.193,0.193,0.193,0.193,0.193,0.193,0.193,0.193,0.193,0.193,0.193,0.193,0.044,0.044,0.044,0.044,0.141,0.141,0.141,0.141,0.141,0.141,0.141,0.141,0.141,0.141,0.141,0.141,0.141,0.141,0.141,0.141,0.341,0.341,0.244,0.244,0.244,0.244,0.244,0.244,0.244,0.244,0.244,0.244,0.244,0.244,0.244,0.244,0.244,0.244,0.244,0.244,0.244,0.244,0.198,0.198,0.198,0.198,0.198,0.198,0.198,0.198,0.198,0.198,0.198,0.198,0.198,0.198,0.198,0.198,0.198,0.198,0.198,0.198,0.044,0.044,0.044,0.044,0.044,0.044,0.044,0.044,0.044,0.044,0.044,0.044,0.044,0.044,0.044,0.044,0.044,0.044,0.141,0.141,0.141,0.141,0.141,0.141,0.141,0.141,0.29,0.29,0.29,0.29,0.29,0.29,0.29,0.29,0.29,0.29,0.193,0.193,0.193,0.193,0.044,0.044,0.044,0.044,0.244,0.244,0.244,0.244,0.244,0.244,0.244,0.244,0.244,0.244,0.244,0.244,0.244,0.398,0.398,0.398,0.398,0.398,0.398,0.398,0.398,0.398,0.198,0.198,0.198,0.198,0.198,0.198,0.198,0.198,0.198,0.198,0.198,0.044,0.044,0.044,0.044,0.044,0.044,0.044,0.044,0.044,0.044,0.044,0.044,0.044,0.044,0.044,0.044,0.044,0.044,0.044,0.044,0.044,0.044,0.044,0.193,0.193,0.193,0.193,0.193,0.193,0.193,0.193,0.193,0.193,0.193,0.193,0.193,0.193,0.044,0.044,0.141,0.141,0.341,0.341,0.341,0.341,0.341,0.341,0.341,0.341,0.341,0.341,0.341,0.341,0.341,0.341,0.341,0.341,0.244,0.244,0.244,0.244,0.244,0.244,0.044,0.044,0.044,0.044,0.044,0.044,0.044,0.044,0.044,0.044,0.044,0.044,0.044,0.044,0.044,0.044,0.044,0.044,0.044,0.044,0.044,0.044,0.044,0.044,0.044,0.044,0.044,0.044,0.044,0.044,0.044,0.044,0.044,0.044,0.044,0.044,0.193,0.193,0.193,0.193,0.193,0.193,0.193,0.193,0.193,0.193,0.193,0.393,0.393,0.393,0.244,0.244,0.244,0.244,0.341,0.341,0.341,0.341,0.341,0.341,0.341,0.341,0.341,0.341,0.341,0.341,0.341,0.341,0.341,0.141,0.295,0.295,0.198,0.198,0.198,0.198,0.198,0.198,0.198,0.198,0.198,0.198,0.198,0.198,0.198,0.198,0.198,0.198,0.198,0.198,0.044,0.044,0.044,0.044,0.044,0.044,0.044,0.044,0.044,0.044,0.044,0.044,0.044,0.044,0.044,0.044,0.044,0.044,0.044,0.044,0.044,0.044,0.044,0.044,0.044,0.044,0.193,0.193,0.193,0.193,0.193,0.193,0.193,0.193,0.193,0.193,0.193,0.193,0.193,0.193,0.141,0.141,0.141,0.141,0.141,0.141,0.141,0.141,0.341,0.341,0.341,0.341,0.341,0.341,0.341,0.341,0.341,0.341,0.244,0.244,0.244,0.244,0.244,0.244,0.244,0.244,0.244,0.244,0.244,0.244,0.044,0.044,0.044,0.044,0.044,0.044,0.044,0.044,0.044,0.044,0.044,0.044,0.044,0.044,0.044,0.044,0.044,0.044,0.044,0.044,0.044,0.044,0.044,0.044,0.044,0.044,0.044,0.044,0.044,0.044,0.044,0.193,0.193,0.347,0.347,0.347,0.347,0.347,0.347,0.347,0.347,0.347,0.347,0.347,0.347,0.198,0.198,0.198,0.198,0.198,0.198,0.198,0.198,0.044,0.044,0.044,0.044,0.044,0.044,0.044,0.044,0.044,2.329,2.329,2.329,0.044,0.044,0.044,0.044,0.044,0.044,0.189,0.189,0.204,0.301,0.301,0.301,0.301,0.301,0.313,0.313,0.313,0.313,0.313,2.598,2.598,2.598,0.313,0.373,0.313,0.313,0.313,0.216,0.216,0.216,0.345,0.345,0.345,0.345,0.405,0.473,0.493,0.493,0.747,0.847,0.847,0.847,0.847,0.847,0.847,1.147,1.147,0.847,0.847,0.819,0.819,0.819,0.819,0.819,0.819,0.819,0.819,0.968,0.814,3.159,3.159,2.959,0.674,0.674,0.714,0.714,0.714,0.714,0.799,0.799,3.099,3.033,3.033,0.748,0.748,0.748,0.845,0.676,0.556,0.694,0.694,0.694,0.694,0.694,0.694,0.867,0.867,0.867,0.867,0.867,0.867,0.867,0.867,0.767,0.67,0.67,0.67,0.67,0.61,0.61,0.638,0.73,0.73,0.79,0.85,0.85,1.05,1.05,1.05,1.05,1.05,1.015,1.015,1.015,1.015,1.055,1.015,1.015,1.015,0.895,0.895,0.955,0.955,0.955,0.955,0.955,0.955,0.955,0.755,0.904,0.869,0.869,0.904,0.944,0.884,0.884,0.884,0.746,0.774,0.774,0.774,0.746,0.746,0.597,0.597,0.597,0.597,0.625,0.625,3.088,3.188,3.188,3.188,3.188,3.188,3.317,3.377,3.377,3.282,3.322,3.282,3.322,3.322,3.322,3.322,3.419,3.419,3.419,3.419,3.419,3.419,3.419,3.419,3.419,3.419,3.419,3.319,3.319,3.319,3.319,3.519,3.519,3.554,3.422,3.422,3.302,3.302,3.302,3.164,3.164,3.164,3.164,3.164,3.164,3.124,3.124,3.124,3.164,3.219,3.179,3.179,3.179,2.884,2.884,2.884,2.916,2.916,2.916,2.956,0.453,0.453,0.413,0.453,0.513,0.513,0.453,0.453,0.493,0.493,0.493,0.493,0.642,0.642,0.642,0.739,0.739,0.739,0.739,0.739,0.739,0.739,0.739,0.779,0.779,0.779,0.63,0.63,0.63,0.63,0.63,0.63,0.63,0.533,0.533,0.533,0.533,0.533,0.573,0.533,0.473,0.533,0.533,0.533,0.533,0.593,0.593,0.593,0.593,0.653,0.713,0.713,0.653,0.653,0.653,0.593,0.553,0.553,0.553,0.553,0.553,0.553,0.553,0.553,0.553,0.553,0.553,0.553,0.553,0.553,0.553,0.553,0.553,0.553,0.553,0.553,0.553,0.553,0.553,0.553,0.553,0.553,0.553,0.553,0.553,0.553,0.553,0.424,0.424,0.436,0.436,0.525,0.553,0.553,0.56,0.56,0.56,0.463,0.463,0.763,0.763,0.763,0.763,0.763,0.763,0.614,0.614,0.674,0.674,0.803,0.803,0.803,0.803,0.843,0.714,0.685,0.625,0.625,0.625,0.625,0.625,0.425,0.425,0.425,0.365,0.365,0.365,0.479,0.617,0.582,0.582,0.582,0.444,0.582,0.444,0.444,0.533,0.533,0.533,0.533,0.593,0.593,0.553,0.553,0.553,0.518,0.498,0.686,0.586,0.586,0.586,0.586,0.546,0.546,0.546,0.886,0.886,0.898,0.898,0.898,0.898,0.898,0.858,0.858,0.996,0.927,0.927,0.927,0.927,0.927,0.927,0.927,0.927,0.927,0.927,0.627,0.827,0.827,0.827,0.827,0.827,0.847,0.847,0.927,0.927,0.927,1.196,1.23,1.199,1.199,1.259,1.231,1.231,1.231,1.231,1.231,1.266,1.137,0.877,0.877,0.728,0.728,0.759,0.759,0.759,0.856,0.896,0.702,0.682,0.682,0.682,0.682,0.682,0.682,0.722,0.722,0.722,0.722,0.722,0.722,0.722,1.116,1.056,0.959,1.059,0.725,0.845,0.845,0.725,0.725,0.74,0.74,0.8,0.7,0.7,0.7,0.7,0.7,0.7,0.7,0.7,0.7,0.7,0.7,0.838,0.873,0.873,0.873,0.873,0.873,0.873,0.873,0.873,0.873,0.873,0.873,0.873,0.973,0.973,0.973,1.07,1.13,1.13,1.13,1.13,1.13,1.13,1.03,1.03,1.179,1.179,1.179,1.208,1.208,1.108,1.197,1.197,1.197,1.1,1.1,1.14,1.14,1.14,0.991,0.991,0.991,0.991,0.991,0.991,1.145,1.161,1.261,1.261,1.261,1.261,1.143,1.143,1.143,1.043,1.043,3.328,3.328,3.328,1.014,0.876,1.076,1.136,1.136,1.136,0.982,0.982,1.042] useactual=no
new object=loadshape.shape_3 npts=1440 minterval=1 mult=[0.054,0.054,0.054,0.054,0.054,0.054,0.054,0.054,0.054,0.054,0.054,0.054,0.054,0.054,0.054,0.054,0.054,0.054,0.054,0.054,0.054,0.054,0.054,0.054,0.054,0.054,0.054,0.054,0.054,0.054,0.054,0.054,0.054,0.054,0.054,0.054,0.054,0.054,0.054,0.054,0.054,0.054,0.054,0.054,0.054,0.054,0.054,0.054,0.054,0.054,0.054,0.054,0.054,0.054,0.054,0.054,0.054,0.054,0.054,0.054,0.054,0.054,0.054,0.054,0.054,0.054,0.054,0.054,0.054,0.054,0.054,0.054,0.054,0.054,0.054,0.054,0.054,0.054,0.054,0.054,0.054,0.054,0.054,0.054,0.054,0.054,0.054,0.054,0.054,0.054,0.054,0.054,0.054,0.054,0.054,0.054,0.054,0.054,0.054,0.054,0.054,0.054,0.054,0.054,0.054,0.054,0.054,0.054,0.054,0.054,0.054,0.054,0.054,0.054,0.054,0.054,0.054,0.054,0.054,0.054,0.054,0.054,0.054,0.054,0.054,0.054,0.054,0.054,0.054,0.054,0.054,0.054,0.054,0.054,0.054,0.054,0.054,0.054,0.054,0.054,0.054,0.054,0.054,0.054,0.054,0.054,0.054,0.054,0.054,0.054,0.054,0.054,0.054,0.054,0.054,0.054,0.054,0.054,0.054,0.054,0.054,0.054,0.054,0.054,0.054,0.054,0.054,0.054,0.054,0.054,0.054,0.054,0.054,0.054,0.054,0.054,0.054,0.054,0.054,0.054,0.054,0.054,0.054,0.054,0.054,0.054,0.054,0.054,0.054,0.054,0.054,0.054,0.054,0.054,0.054,0.054,0.054,0.054,0.054,0.054,0.054,0.054,0.054,0.054,0.054,0.054,0.054,0.054,0.054,0.054,0.054,0.054,0.054,0.054,0.054,0.054,0.054,0.054,0.054,0.054,0.054,0.054,0.054,0.054,0.054,0.054,0.054,0.054,0.054,0.054,0.054,0.054,0.054,0.054,0.054,0.054,0.054,0.054,0.054,0.054,0.054,0.054,0.054,0.054,0.054,0.054,0.054,0.054,0.054,0.054,0.054,0.054,0.054,0.054,0.054,0.054,0.054,0.054,0.054,0.054,0.054,0.054,0.054,0.054,0.054,0.054,0.054,0.054,0.054,0.054,0.054,0.054,0.054,0.054,0.054,0.054,0.054,0.054,0.054,0.054,0.054,0.054,0.054,0.054,0.054,0.054,0.054,0.054,0.054,0.054,0.054,0.054,0.054,0.054,0.054,0.054,0.054,0.054,0.054,0.054,0.054,0.054,0.054,0.054,0.054,0.054,0.054,0.054,0.054,0.054,0.054,0.054,0.054,0.054,0.054,0.054,0.054,0.054,0.054,0.054,0.054,0.054,0.054,0.054,0.054,0.054,0.054,0.054,0.054,0.054,0.054,0.054,0.054,0.054,0.054,0.054,0.054,0.054,0.054,0.054,0.054,0.054,0.054,0.054,0.054,0.054,0.054,0.054,0.054,0.054,0.054,0.054,0.054,0.054,0.054,0.054,0.054,0.054,0.054,0.054,0.054,0.054,0.054,0.054,0.054,0.054,0.054,0.054,0.054,0.054,0.054,0.054,0.054,0.054,0.054,0.054,0.054,0.054,0.054,0.054,0.054,0.054,0.054,0.054,0.054,0.054,0.054,0.054,0.054,0.054,0.054,0.054,0.054,0.054,0.054,0.054,0.054,0.054,0.054,0.054,0.054,0.054,0.054,0.054,0.054,0.054,0.054,0.054,0.054,0.054,0.054,0.054,0.054,0.054,0.054,0.054,0.054,0.054,0.054,0.054,0.054,0.054,0.054,0.114,0.114,0.054,0.054,0.054,0.054,0.054,0.054,0.054,0.244,0.184,0.054,0.054,0.054,0.054,0.368,2.526,2.526,2.586,0.214,0.154,0.244,0.244,0.154,0.154,0.154,0.154,0.154,0.154,0.114,0.114,0.114,0.114,0.114,0.114,0.114,0.114,0.114,0.114,0.114,0.114,0.114,0.114,2.172,2.172,2.172,0.114,0.114,0.114,0.114,0.114,0.114,0.114,0.114,0.114,0.114,0.114,0.114,0.114,0.114,0.114,0.114,8.308,8.308,8.308,0.114,0.114,0.114,0.114,0.174,0.174,0.174,0.114,0.174,0.114,0.114,0.114,0.114,0.114,0.114,0.114,0.114,0.114,0.114,0.114,0.114,0.114,0.114,0.114,0.114,0.114,0.114,0.114,0.114,0.114,0.114,0.114,0.114,0.114,0.114,0.114,0.114,0.114,0.114,0.114,0.114,0.114,0.114,0.114,0.114,0.114,0.114,0.114,0.114,0.114,0.114,0.114,0.114,0.114,0.114,0.114,0.114,0.114,0.114,0.114,0.114,0.114,0.114,0.114,0.114,0.114,0.114,0.114,0.114,0.114,0.114,0.114,0.114,0.114,0.114,0.114,0.114,0.114,0.114,0.114,0.114,0.114,0.114,0.114,0.114,0.114,0.114,0.114,0.114,0.114,0.114,0.154,0.154,0.154,0.194,0.194,0.194,0.194,0.194,0.194,0.194,0.194,0.194,0.361,0.361,0.361,0.361,0.361,0.361,0.361,0.361,0.361,0.054,0.054,0.054,0.054,0.054,0.054,0.054,0.054,0.054,0.054,0.054,0.054,0.054,0.054,0.054,0.054,0.054,0.054,0.054,0.054,0.054,0.054,0.054,0.054,0.054,0.054,0.054,0.054,0.054,0.054,0.054,0.054,0.054,0.054,0.054,0.054,0.054,0.054,0.054,0.054,0.054,0.054,0.054,0.054,0.054,0.054,0.054,0.054,0.054,0.054,0.054,0.054,0.054,0.054,0.054,0.054,0.054,0.054,0.054,0.054,0.054,0.054,0.054,0.054,0.054,0.054,0.054,0.054,0.054,0.054,0.054,0.054,0.054,0.054,0.054,0.054,0.054,0.054,0.054,0.054,0.054,0.054,0.054,0.054,0.054,0.054,0.054,0.054,0.054,0.054,0.054,0.054,0.054,0.054,0.054,0.054,0.054,0.054,0.054,0.054,0.054,0.054,0.054,0.054,0.054,0.054,0.054,0.054,0.054,0.054,0.054,0.054,0.054,0.054,0.054,0.054,0.054,0.054,0.054,0.054,0.054,0.054,0.054,0.054,0.054,0.054,0.054,0.054,0.054,0.054,0.054,0.054,0.054,0.054,0.054,0.054,0.054,0.054,0.054,0.054,0.054,0.054,0.054,0.054,0.054,0.054,0.054,0.054,0.054,0.054,0.054,0.054,0.054,0.054,0.054,0.054,0.054,0.054,0.054,0.054,0.054,0.054,0.054,0.054,0.054,0.054,0.054,0.054,0.054,0.054,0.054,0.054,0.054,0.054,0.054,0.054,0.054,0.054,0.054,0.054,0.054,0.054,0.054,0.054,0.054,0.054,0.054,0.054,0.054,0.054,0.054,0.054,0.054,0.054,0.054,0.054,0.054,0.054,0.054,0.054,0.054,0.054,0.054,0.054,0.054,0.054,0.054,0.054,0.054,0.054,0.054,0.054,0.054,0.054,0.054,0.054,0.054,0.054,0.054,0.054,0.054,0.054,0.054,0.054,0.054,0.054,0.054,0.054,0.054,0.054,0.054,0.054,0.054,0.054,0.054,0.054,0.054,0.054,0.054,0.054,0.054,0.054,0.054,0.054,0.054,0.054,0.054,0.054,0.054,0.054,0.054,0.054,0.054,0.054,0.054,0.054,0.054,0.054,0.054,0.054,0.054,0.054,0.054,0.054,0.054,0.054,0.054,0.054,0.054,0.054,0.054,0.054,0.054,0.054,0.054,0.054,0.054,0.054,0.054,0.054,0.054,0.054,0.054,0.054,0.054,0.054,0.054,0.054,0.054,0.054,0.054,0.054,0.054,0.054,0.054,0.054,0.054,0.054,0.054,0.054,0.054,0.054,0.054,0.054,0.054,0.054,0.054,0.054,0.054,0.054,0.054,0.054,0.054,0.054,0.054,0.054,0.054,0.054,0.054,0.054,0.054,0.054,0.054,0.054,0.054,0.054,0.054,0.054,0.054,0.054,0.054,0.054,0.054,0.054,0.054,0.054,0.054,0.054,0.054,0.054,0.054,0.054,0.054,0.054,0.054,0.054,0.054,0.054,0.054,0.054,0.054,0.054,0.054,0.054,0.054,0.054,0.054,0.054,0.054,0.054,0.054,0.054,0.054,0.054,0.054,0.054,0.054,0.054,0.054,0.054,0.054,0.054,0.054,0.054,0.054,0.054,0.054,0.054,0.054,0.054,0.054,0.054,0.054,0.054,0.054,0.054,0.054,0.054,0.054,0.054,0.054,0.054,0.054,0.054,0.054,0.054,0.054,0.054,0.054,0.054,0.054,0.054,0.054,0.054,0.054,0.054,0.054,0.054,0.054,0.054,0.054,0.054,0.054,0.054,0.054,0.054,0.054,0.054,0.054,0.054,0.054,0.054,0.054,0.054,0.054,0.054,0.054,0.054,0.054,0.054,0.054,0.054,0.054,0.054,0.054,0.054,0.054,0.054,0.054,0.054,0.054,0.054,0.054,0.054,0.054,0.054,0.054,0.054,0.054,0.054,0.054,0.054,0.054,0.054,0.054,0.054,0.054,0.054,0.054,0.054,0.054,0.054,0.054,0.054,0.054,0.054,0.054,0.054,0.054,0.054,0.281,0.221,0.221,0.346,0.346,0.346,0.466,0.466,0.466,0.466,0.406,0.426,0.516,0.516,0.516,0.516,0.516,0.516,0.576,0.576,0.576,0.576,0.616,0.616,0.616,0.616,0.616,0.616,0.616,0.616,0.556,0.466,0.566,0.566,0.566,0.566,0.566,0.566,0.566,0.566,0.566,0.566,0.666,0.666,0.606,0.606,0.526,0.526,0.526,0.526,0.526,0.526,0.526,0.526,0.646,0.546,0.546,0.546,0.546,0.546,0.558,0.546,0.696,0.796,0.796,0.796,0.796,0.606,0.606,0.606,0.606,0.606,0.606,0.481,0.606,0.606,0.606,0.606,0.618,0.758,0.758,0.758,0.758,0.823,0.823,0.723,0.723,0.723,0.723,0.658,0.658,0.658,0.658,0.658,0.658,0.658,0.658,0.658,0.658,0.758,0.758,0.758,0.758,0.758,0.758,0.758,0.758,0.818,0.818,1.132,1.132,1.072,1.09,0.776,0.716,0.471,0.451,0.451,0.451,0.451,0.451,0.451,0.411,0.411,0.411,0.411,0.411,0.411,0.411,0.411,0.471,0.471,0.471,0.471,0.471,0.471,0.511,0.511,0.511,0.511,0.511,0.511,0.524,0.484,0.424,0.424,0.424,0.364,0.364,0.364,0.404,0.404,0.404,0.404,0.404,0.364,0.364,0.364,0.364,0.384,0.384,0.384,0.264,0.297,0.297,0.337,0.337,0.397,0.297,0.297,0.297,2.76,2.76,2.74,2.74,2.74,2.74,2.74,2.74,2.74,2.74,2.74,2.74,2.74,2.74,2.722,2.722,0.279,0.279,0.369,0.369,0.387,0.387,0.387,0.387,0.387,0.387,0.387,0.387,0.387,0.387,0.387,0.374,0.284,0.284,0.284,0.284,0.284,0.344,0.284,0.284,0.284,0.284,0.284,0.284,0.284,0.409,0.409,0.469,0.469,0.529,0.529,2.587,2.587,2.587,0.529,0.529,0.594,0.594,0.594,0.594,0.684,0.684,0.684,0.684,0.684,0.651,0.561,0.561,0.561,0.561,0.561,0.561,0.561,0.561,0.561,0.561,0.496,0.496,0.496,0.496,0.586,0.586,0.586,0.496,0.496,0.556,0.556,0.556,0.556,0.596,0.596,0.596,0.596,0.578,0.578,0.611,3.054,3.054,3.094,3.094,3.094,3.094,3.094,3.094,3.054,3.054,3.094,3.094,3.054,3.054,3.054,2.994,0.551,0.551,0.551,0.551,0.551,0.551,0.551,0.591,0.444,0.504,0.504,0.504,0.492,0.492,0.452,0.452,0.512,0.512,0.512,0.412,0.412,0.352,0.352,0.412,0.412,0.412,0.412,0.412,0.412,0.602,0.602,0.602,0.602,0.602,0.602,0.462,0.482,0.482,0.482,0.482,2.52,2.52,2.585,0.527,0.527,0.527,0.527,0.527,0.694,0.694,0.754,0.786,0.706,0.706,0.826,2.824,2.791,2.791,0.733,0.733,0.733,0.733,0.633,2.691,2.691,2.566,0.448,0.488,0.448,0.448,0.573,0.573,0.573,0.613,0.613,0.613,0.613,0.613,0.613,0.613,0.613,0.613,0.548,0.548,0.561,0.471,0.504] useactual=no
new object=loadshape.shape_4 npts=1440 minterval=1 mult=[0.048,0.048,0.048,0.227,0.227,0.227,0.227,0.227,0.227,0.227,0.227,0.227,0.227,0.227,0.227,0.227,0.227,0.227,0.227,0.227,0.227,0.227,0.227,0.227,0.227,0.231,0.231,0.231,0.231,0.231,0.231,0.231,0.231,0.231,0.231,0.231,0.231,0.231,0.231,0.048,0.048,0.048,0.048,0.048,0.166,0.166,0.166,0.166,0.166,0.166,0.166,0.166,0.166,0.166,0.166,0.166,0.166,0.166,0.166,0.166,0.166,0.166,0.048,0.048,0.048,0.048,0.048,0.048,0.048,0.048,0.048,0.048,0.048,0.048,0.048,0.048,0.048,0.048,0.048,0.048,0.227,0.227,0.227,0.227,0.227,0.227,0.227,0.227,0.227,0.227,0.227,0.227,0.227,0.227,0.227,0.227,0.227,0.227,0.227,0.227,0.227,0.227,0.048,0.231,0.231,0.231,0.231,0.231,0.231,0.231,0.231,0.231,0.349,0.349,0.349,0.349,0.349,0.166,0.166,0.166,0.166,0.166,0.166,0.166,0.166,0.166,0.166,0.166,0.166,0.166,0.048,0.048,0.048,0.048,0.048,0.048,0.048,0.048,0.048,0.048,0.048,0.048,0.048,0.048,0.048,0.048,0.048,0.048,0.048,0.048,0.048,0.048,0.048,0.048,0.048,0.048,0.048,0.048,0.048,0.048,0.048,0.048,0.048,0.048,0.048,0.048,0.048,0.048,0.048,0.048,0.048,0.048,0.048,0.048,0.048,0.231,0.231,0.231,0.231,0.231,0.231,0.231,0.231,0.231,0.231,0.231,0.231,0.231,0.231,0.048,0.048,0.048,0.048,0.166,0.166,0.166,0.166,0.166,0.166,0.166,0.166,0.166,0.166,0.345,0.345,0.345,0.345,0.345,0.345,0.345,0.345,0.227,0.227,0.227,0.227,0.227,0.227,0.227,0.227,0.227,0.227,0.227,0.227,0.227,0.227,0.048,0.048,0.048,0.048,0.048,0.048,0.048,0.048,0.048,0.048,0.048,0.048,0.048,0.048,0.048,0.048,0.048,0.048,0.048,0.048,0.048,0.231,0.231,0.231,0.231,0.231,0.231,0.231,0.231,0.231,0.231,0.231,0.231,0.231,0.231,0.048,0.048,0.048,0.048,0.048,0.048,0.048,0.048,0.048,0.048,0.166,0.166,0.166,0.166,0.166,0.166,0.166,0.166,0.166,0.166,0.166,0.166,0.166,0.166,0.166,0.166,0.166,0.166,0.048,0.048,0.048,0.048,0.048,0.227,0.227,0.227,0.227,0.227,0.227,0.227,0.227,0.227,0.227,0.227,0.227,0.227,0.227,0.227,0.227,0.227,0.227,0.227,0.227,0.227,0.227,0.048,0.048,0.048,0.048,0.048,0.048,0.048,0.048,0.048,0.048,0.048,0.048,0.048,0.166,0.166,0.166,0.166,0.166,0.166,0.166,0.349,0.349,0.349,0.349,0.349,0.349,0.349,0.349,0.349,0.349,0.349,0.231,0.231,0.231,0.048,0.048,0.048,0.048,0.048,0.048,0.048,0.048,0.048,0.048,0.048,0.048,0.048,0.048,0.227,0.227,0.227,0.227,0.227,0.227,0.227,0.227,0.227,0.227,0.227,0.227,0.227,0.227,0.227,0.227,0.227,0.227,0.227,0.227,0.227,0.227,0.048,0.048,0.048,0.048,0.048,0.048,0.048,0.048,0.048,0.048,0.048,0.048,0.048,0.048,0.048,0.048,0.048,0.048,0.048,0.048,0.048,0.231,0.231,0.231,0.231,0.231,0.231,0.231,0.231,0.231,0.231,0.231,0.231,0.231,0.231,0.166,0.166,0.166,0.166,0.166,0.166,0.166,0.166,0.166,0.166,0.166,0.166,0.166,0.166,0.166,0.166,0.166,0.166,0.048,0.227,0.227,0.227,0.227,0.227,0.227,0.227,0.227,0.227,0.227,0.227,0.227,0.227,0.227,0.227,0.227,0.227,0.227,0.227,0.227,0.227,0.227,0.048,0.048,0.048,0.048,0.048,0.048,0.048,0.048,0.048,0.048,0.048,0.048,0.048,0.048,0.048,0.048,0.048,0.231,0.349,0.349,0.349,0.349,0.349,0.349,0.349,0.349,0.349,0.349,0.349,0.349,0.349,0.166,0.166,0.166,0.166,0.166,0.048,0.048,0.048,0.048,0.048,0.048,0.048,0.048,0.048,0.048,0.048,0.048,0.048,0.048,0.048,0.048,0.048,0.048,0.048,0.048,0.048,0.048,0.048,0.048,0.048,0.048,0.048,0.048,0.048,0.048,0.048,0.227,0.227,0.227,0.227,0.227,0.227,0.227,0.227,0.227,0.227,0.227,0.227,0.227,0.227,0.227,0.227,0.227,0.227,0.227,0.227,0.227,0.227,0.048,0.048,0.048,0.048,0.048,0.048,0.048,0.048,0.048,0.048,0.048,0.048,0.048,0.048,0.231,0.231,0.231,0.231,0.231,0.231,0.231,0.231,0.231,0.231,0.231,0.231,0.231,0.231,0.048,0.048,0.048,0.048,0.048,0.048,0.048,0.048,0.048,0.048,0.166,0.166,0.166,0.166,0.166,0.166,0.166,0.166,0.166,0.166,0.176,0.176,0.176,0.176,0.176,0.176,0.176,0.176,0.058,0.058,0.058,0.058,0.058,0.058,0.058,0.058,0.058,0.058,0.237,0.237,0.25,0.25,0.25,0.25,0.25,0.25,0.25,0.25,0.25,0.25,0.25,0.25,0.25,0.25,0.25,0.25,0.25,0.25,0.25,0.25,0.071,0.071,0.071,0.071,0.071,0.071,0.312,0.312,0.312,0.312,0.312,0.312,0.166,0.166,0.166,0.166,0.166,0.166,0.166,0.166,0.166,0.166,0.166,0.349,0.231,0.231,0.231,0.231,0.231,0.231,0.231,0.231,0.231,0.231,0.231,0.231,0.231,0.048,0.048,0.048,0.048,0.048,0.194,0.194,0.194,0.194,0.194,0.373,0.373,0.373,0.373,0.373,0.373,0.373,0.373,0.373,2.849,2.849,2.849,2.849,2.849,2.849,2.849,2.839,2.839,2.839,2.839,2.839,2.839,2.66,2.647,2.647,2.647,2.647,2.647,2.647,2.66,2.66,2.537,2.537,2.537,2.537,2.537,2.537,2.537,2.537,2.537,2.537,2.537,2.537,2.537,2.537,2.537,2.537,2.72,2.72,2.72,2.72,2.838,2.838,2.838,2.838,2.838,2.838,2.838,2.848,2.848,2.848,2.665,2.665,2.665,2.665,2.665,2.665,2.665,2.665,0.071,0.071,0.194,0.071,0.071,0.071,0.071,0.071,0.071,0.171,0.171,0.171,0.171,0.171,0.171,0.171,0.171,0.171,0.071,0.25,0.237,0.237,0.237,0.237,0.237,0.237,0.237,0.237,0.237,0.237,0.237,0.237,0.237,0.237,0.237,0.265,0.265,0.265,0.377,0.377,0.377,0.086,0.086,0.086,0.086,0.086,0.086,0.086,0.086,0.086,0.086,0.086,0.086,0.086,0.086,0.086,0.086,0.086,0.086,0.086,0.086,0.086,0.076,0.076,0.076,0.076,0.076,0.259,0.259,0.259,0.259,0.259,0.259,0.259,0.259,0.259,0.259,0.259,0.269,0.269,2.26,2.077,2.077,2.077,2.077,2.077,2.077,2.077,2.077,2.077,2.077,2.077,2.077,2.077,2.077,2.077,0.086,0.086,0.086,0.086,0.099,0.099,0.206,0.206,0.206,0.206,0.206,0.206,0.178,0.296,0.296,0.296,0.296,0.296,0.296,0.296,0.296,0.296,0.296,0.296,0.296,0.296,0.296,0.296,0.296,0.296,0.296,0.178,0.178,0.178,0.178,0.178,0.178,0.178,0.178,0.178,0.357,0.357,0.357,0.357,0.357,0.357,0.357,0.357,0.357,0.54,0.54,0.54,0.54,0.54,0.54,0.53,0.53,0.53,0.53,0.53,0.53,0.53,0.351,0.168,0.155,0.155,0.155,0.155,0.155,0.155,0.155,0.155,0.155,0.155,0.155,0.155,0.155,0.048,0.048,0.048,0.048,0.048,0.048,0.048,0.048,0.048,0.048,0.048,0.048,0.048,0.048,0.048,0.048,0.048,0.048,0.048,0.048,0.048,0.048,0.048,0.048,0.048,0.048,0.088,0.088,0.088,0.248,0.248,0.248,0.248,0.148,0.148,0.148,0.148,0.168,0.168,0.168,0.168,0.168,0.351,0.351,0.53,0.53,0.49,0.55,0.55,0.55,0.55,0.55,0.55,0.55,0.55,0.53,0.347,0.347,0.407,0.407,0.407,0.407,0.407,0.525,0.525,0.465,0.286,0.286,0.286,0.286,0.286,0.286,0.286,0.286,0.286,0.286,0.286,0.286,0.326,0.326,0.326,0.228,0.288,0.288,0.288,0.288,0.228,0.25,0.25,0.25,0.21,0.21,0.21,0.21,0.21,0.333,0.333,0.333,0.333,0.333,0.333,0.333,0.333,0.393,0.493,0.493,0.484,0.484,0.424,0.424,0.424,0.424,0.424,0.424,0.424,0.424,0.424,0.424,0.424,0.424,0.607,0.607,0.607,0.607,0.647,0.647,0.707,0.886,0.746,0.746,0.746,0.746,0.746,0.686,0.503,0.661,0.661,0.721,0.721,0.721,0.893,0.893,0.893,0.893,0.893,0.893,0.843,0.87,0.747,0.568,0.568,0.568,0.568,0.338,0.338,0.338,0.338,0.338,0.338,0.338,0.333,0.273,0.273,0.373,0.373,0.373,0.273,0.178,0.178,0.178,0.178,0.178,0.178,0.178,0.178,0.178,0.178,0.178,0.178,0.178,0.278,0.278,0.278,0.278,0.178,0.178,0.178,0.178,0.178,0.178,0.178,0.178,0.178,0.178,0.178,0.178,0.178,0.357,2.906,2.906,4.897,4.897,4.897,4.957,4.957,4.957,5.18,5.18,5.18,5.18,5.18,5.18,4.997,4.897,5.015,5.015,2.924,2.924,2.924,2.735,2.735,2.744,2.744,2.744,2.744,0.378,0.378,0.478,0.488,0.488,0.488,0.479,0.361,0.048,0.048,0.048,0.048,0.048,0.048,0.048,0.048,0.048,0.048,0.048,0.048,0.048,0.048,0.048,0.048,0.048,0.048,0.048,0.048,0.048,0.048,0.048,0.048,0.048,0.048,0.048,0.048,0.048,0.048,0.048,0.048,0.048,0.048,0.048,0.048,0.048,0.048,0.048,0.048,0.048,0.048,0.048,0.048,0.048,0.048,0.048,0.048,0.166,0.166,0.166,0.166,0.166,0.166,0.166,0.345,0.528,0.528,0.528,0.528,0.528,0.528,0.528,0.528,0.528,0.528,0.41,0.41,0.41,0.41,0.227,0.227,0.227,0.227,0.227,0.227,0.227,0.048,0.048,0.048,0.048,0.048,0.048,0.048,0.048,0.048,0.048,0.048,0.048,0.048,0.048,0.048,0.048,0.048,0.048,0.048,0.048,0.048,0.048,0.048,0.048,0.048,0.048,0.048,0.048,0.166,0.166,0.166,0.166,0.166,0.166,0.166,0.166,0.166,0.166,0.166,0.166,0.166,0.166,0.166,0.166,0.166,0.166,0.048,0.048,0.048,0.048,0.048,0.048,0.048,0.048,0.048,0.048,0.048,0.048,0.048,0.048,0.227,0.227,0.227,0.227,0.227,0.227,0.227,0.227,0.227,0.227,0.227,0.227,0.227,0.36,0.467,0.467,0.567,0.679,0.679,0.739,0.739,0.739,0.56,0.56,0.861,0.921,0.921,0.921,0.921,0.921,0.861,0.861,0.861,0.749,0.749,0.749,0.749,0.749,0.566,0.566,0.566,0.566,0.448,0.448,0.448,0.508,0.448,0.448,0.548,0.548,0.548,0.548,0.528,0.428,0.488,0.488,0.488,0.488,0.428,0.428,0.305,0.305,0.305,0.048,0.048,0.048,0.048,0.048,0.048,0.048,0.227,0.227,0.227,0.227,0.227,0.227,0.227,0.227,0.227,0.227,0.227,0.227,0.227,0.227,0.227,0.227,0.227,0.227,0.227,0.227,0.227,0.227,0.166,0.166,0.166,0.166,0.166,0.166,0.166,0.166,0.166,0.166,0.166,0.166,0.166,0.166,0.166,0.166,0.166,0.166,0.231,0.231,0.231,0.231,0.231,0.231,0.231,0.231,0.231,0.231,0.231,0.231,0.231,0.231,0.048,0.048,0.048,0.048,0.048,0.048,0.048,0.048,0.048,0.048,0.048,0.048,0.048,0.048,0.048,0.048,0.048,0.048,0.048] useactual=no
new object=loadshape.shape_5 npts=1440 minterval=1 mult=[0.035,0.035,0.035,0.035,0.035,0.035,0.147,0.147,0.147,0.279,0.035,0.035,0.035,0.035,0.035,0.035,0.035,0.035,0.035,0.035,0.035,0.035,0.035,0.035,0.035,0.035,0.035,0.035,0.035,0.035,0.235,0.235,0.235,0.235,0.235,0.235,0.235,0.235,0.235,0.235,0.235,0.235,0.235,0.235,0.035,0.035,0.035,0.035,0.035,0.035,0.035,0.035,0.035,0.035,0.035,0.035,0.035,0.035,0.035,0.035,0.035,0.035,0.035,0.035,0.035,0.035,0.035,0.035,0.035,0.035,0.035,0.035,0.035,0.035,0.035,0.035,0.035,0.035,0.035,0.035,0.035,0.035,0.035,0.035,0.035,0.035,0.035,0.035,0.035,0.035,0.035,0.035,0.035,0.035,0.035,0.035,0.035,0.035,0.035,0.035,0.035,0.035,0.235,0.235,0.235,0.235,0.235,0.235,0.235,0.235,0.235,0.235,0.235,0.235,0.235,0.235,0.035,0.035,0.035,0.035,0.035,0.035,0.035,0.035,0.035,0.035,0.035,0.035,0.035,0.035,0.035,0.035,0.035,0.035,0.035,0.035,0.035,0.035,0.035,0.035,0.035,0.035,0.035,0.035,0.035,0.035,0.035,0.035,0.035,0.035,0.035,0.035,0.035,0.035,0.035,0.035,0.035,0.035,0.035,0.035,0.035,0.035,0.035,0.035,0.035,0.035,0.035,0.035,0.035,0.035,0.035,0.035,0.035,0.035,0.035,0.035,0.035,0.035,0.035,0.035,0.035,0.035,0.035,0.035,0.035,0.035,0.035,0.035,0.035,0.035,0.035,0.035,0.035,0.035,0.035,0.035,0.035,0.035,0.235,0.235,0.235,0.235,0.235,0.235,0.235,0.235,0.235,0.235,0.235,0.235,0.235,0.235,0.035,0.035,0.035,0.035,0.035,0.035,0.035,0.035,0.035,0.035,0.035,0.035,0.035,0.035,0.035,0.035,0.035,0.035,0.035,0.035,0.035,0.035,0.035,0.035,0.035,0.035,0.035,0.035,0.035,0.035,0.035,0.035,0.035,0.035,0.035,0.035,0.035,0.035,0.035,0.035,0.035,0.035,0.035,0.035,0.035,0.035,0.035,0.035,0.035,0.035,0.035,0.035,0.035,0.035,0.035,0.035,0.035,0.235,0.235,0.235,0.235,0.235,0.235,0.235,0.235,0.235,0.235,0.235,0.235,0.235,0.235,0.035,0.035,0.035,0.035,0.035,0.035,0.035,0.035,0.035,0.035,0.035,0.035,0.035,0.035,0.035,0.035,0.035,0.035,0.035,0.035,0.035,0.035,0.035,0.035,0.035,0.035,0.035,0.035,0.035,0.035,0.035,0.035,0.035,0.035,0.035,0.035,0.035,0.035,0.035,0.035,0.035,0.035,0.035,0.035,0.035,0.035,0.035,0.035,0.035,0.035,0.035,0.035,0.035,0.035,0.035,0.035,0.035,0.035,0.035,0.035,0.035,0.035,0.035,0.035,0.035,0.035,0.035,0.035,0.035,0.035,0.035,0.035,0.035,0.235,0.235,0.235,0.235,0.235,0.235,0.235,0.235,0.235,0.235,0.235,0.235,0.235,0.235,0.035,0.035,0.035,0.035,0.035,0.035,0.035,0.035,0.035,0.035,0.035,0.035,0.035,0.035,0.035,0.035,0.035,0.035,0.035,0.035,0.035,0.035,0.035,0.035,0.035,0.035,0.035,0.035,0.035,0.035,0.035,0.035,0.035,0.035,0.035,0.035,0.035,0.035,0.035,0.035,0.035,0.035,0.035,0.035,0.035,0.035,0.035,0.035,0.035,0.035,0.299,0.299,0.299,0.299,0.299,0.299,0.299,0.299,0.299,0.299,0.299,0.279,0.279,0.279,0.479,0.479,0.519,0.519,0.519,0.519,0.519,0.519,0.559,0.559,0.559,0.559,0.559,0.559,0.359,0.319,0.331,0.331,0.331,0.331,0.331,0.331,0.331,0.331,0.431,0.431,0.431,0.319,0.379,0.307,0.307,0.407,0.407,0.407,0.407,0.407,0.407,0.407,0.407,0.407,0.275,0.275,0.275,0.275,0.275,0.275,0.035,0.035,0.035,0.035,0.035,0.035,0.035,0.035,0.035,0.035,0.035,0.035,0.035,0.035,0.035,0.035,0.035,0.035,0.035,0.035,0.035,0.035,0.035,0.035,0.035,0.035,0.035,0.035,0.035,0.035,0.035,0.035,0.035,0.035,0.035,0.035,0.235,0.235,0.235,0.235,0.235,0.235,0.235,0.235,0.235,0.235,0.235,0.235,0.235,0.235,0.035,0.035,0.035,0.035,0.035,0.035,0.035,0.035,0.035,0.035,0.035,0.035,0.035,0.035,0.035,0.035,0.035,0.035,0.035,0.035,0.035,0.035,0.035,0.035,0.035,0.035,0.035,0.035,0.035,0.035,0.035,0.035,0.035,0.035,0.035,0.035,0.09,0.09,0.09,2.255,2.255,2.255,2.295,2.295,2.269,2.269,2.401,2.401,2.401,2.269,2.269,2.269,2.269,2.269,2.269,2.269,2.269,2.269,2.269,2.269,2.269,2.269,2.269,2.269,2.401,2.601,0.436,0.436,0.436,0.436,0.436,0.436,0.381,0.381,0.381,0.381,0.381,0.381,0.381,0.181,0.181,0.181,0.181,0.181,0.181,0.181,0.181,0.181,0.181,0.181,0.181,0.181,0.181,0.181,0.181,0.181,0.181,0.181,0.181,0.181,0.035,0.035,0.035,0.035,0.035,0.035,0.035,0.035,0.035,0.035,0.035,0.035,0.035,0.035,0.035,0.035,0.035,0.035,0.035,0.035,0.035,0.035,0.035,0.035,0.035,0.035,0.035,0.035,0.035,0.035,0.181,0.181,0.181,0.181,0.167,0.167,0.167,0.167,0.167,0.167,0.167,0.367,0.367,0.367,0.367,0.367,0.367,0.367,0.367,0.367,2.509,2.509,2.509,2.523,2.635,2.435,2.435,2.435,2.435,2.435,2.435,2.435,2.435,2.435,3.438,3.438,3.438,2.435,2.435,2.435,0.293,0.293,0.293,0.293,0.293,0.293,0.293,0.293,0.293,0.293,0.293,0.293,0.293,0.293,0.293,0.293,0.293,0.293,0.293,0.293,0.161,0.161,0.161,0.161,0.161,0.161,0.161,0.161,0.161,0.161,0.035,0.035,0.035,0.035,0.035,0.035,0.035,0.035,0.035,0.035,0.035,0.035,0.035,0.035,0.035,0.035,0.035,0.035,0.235,0.235,0.235,0.235,0.235,0.235,0.235,0.235,0.235,0.235,0.235,0.235,0.235,0.235,0.035,0.035,0.035,0.035,0.035,0.035,0.035,0.035,0.035,0.035,0.035,0.035,0.035,0.035,0.035,0.035,0.035,0.035,0.035,0.035,0.035,0.035,0.035,0.035,0.035,0.035,0.035,0.035,0.035,0.035,0.035,0.035,0.035,0.035,0.035,0.035,0.035,0.035,0.161,0.161,0.161,0.161,0.161,0.161,0.161,0.161,0.161,0.161,0.161,0.161,0.161,0.147,0.147,0.147,0.147,0.147,0.147,0.147,0.147,0.147,0.147,0.147,0.147,0.147,0.147,0.161,0.161,0.161,0.035,0.035,0.035,0.035,0.035,0.235,0.235,0.235,0.235,0.235,0.235,0.235,0.235,0.235,0.235,0.235,0.235,0.235,0.235,0.035,0.035,0.035,0.035,0.035,0.035,0.035,0.035,0.035,0.035,0.035,0.035,0.035,0.035,0.035,0.035,0.035,0.035,0.035,0.035,0.035,0.035,0.035,0.035,0.035,0.035,0.035,0.035,0.035,0.035,0.035,0.035,0.035,0.035,0.035,0.035,0.035,0.035,0.035,0.035,0.035,0.035,0.035,0.035,0.035,0.035,0.035,0.035,0.035,0.035,0.035,0.035,0.035,0.035,0.035,0.035,0.035,0.035,0.035,0.035,0.035,0.035,0.235,0.235,0.235,0.235,0.235,0.235,0.235,0.235,0.235,0.235,0.235,0.235,0.235,0.235,0.035,0.035,0.035,0.035,0.035,0.035,0.035,0.035,0.035,0.035,0.035,0.035,0.035,0.035,0.035,0.035,0.035,0.035,0.035,0.035,0.035,0.035,0.035,0.035,0.035,0.035,0.035,0.035,0.035,0.035,0.035,0.035,0.035,0.035,0.035,0.035,0.035,0.035,0.035,0.035,0.035,0.035,0.035,0.035,0.035,0.035,0.035,0.035,0.035,0.035,0.035,0.035,0.035,0.035,0.035,0.035,0.035,0.035,0.035,0.235,0.235,0.235,0.235,0.235,0.235,0.235,0.235,0.235,0.235,0.235,0.235,0.235,0.235,0.035,0.035,0.035,0.035,0.035,0.035,0.035,0.035,0.035,0.035,0.035,0.035,0.035,0.035,0.035,0.035,0.035,0.035,0.035,0.035,0.035,0.035,0.035,0.035,0.035,0.035,0.035,0.035,0.035,0.035,0.035,0.035,0.035,0.035,0.035,0.035,0.035,0.035,0.035,0.035,0.035,0.035,0.035,0.035,0.035,0.035,0.035,0.035,0.035,0.035,0.035,0.035,0.035,0.035,0.035,0.035,0.035,0.035,0.235,0.235,0.235,0.235,0.235,0.235,0.235,0.235,0.235,0.235,0.235,0.235,0.235,0.235,0.161,0.161,0.161,0.161,0.261,0.261,0.316,0.316,0.316,0.416,0.416,0.416,0.416,0.416,0.416,0.476,0.476,0.576,0.576,0.476,0.416,0.416,0.416,0.516,0.416,0.304,0.304,0.304,0.304,0.304,0.204,0.204,0.204,0.244,0.204,0.204,0.204,0.204,0.336,0.32,0.264,0.264,0.264,0.264,0.264,0.264,0.204,0.204,0.204,0.244,0.244,0.244,0.244,0.204,0.204,0.204,0.316,0.342,0.342,0.342,0.342,0.542,0.542,0.542,0.554,0.542,0.487,0.602,0.602,0.602,0.45,0.45,0.39,0.39,0.39,0.19,0.19,0.19,0.19,0.19,0.19,0.19,0.09,0.09,0.19,0.19,0.19,0.19,0.201,0.201,0.201,0.201,0.201,0.201,0.201,0.201,0.261,0.261,0.261,0.261,0.306,0.306,0.306,0.306,0.306,0.306,0.306,0.306,0.306,0.306,0.206,0.206,0.206,0.206,0.206,0.206,0.206,0.306,0.306,0.306,0.306,0.306,0.306,0.306,0.306,0.306,0.306,0.206,0.206,0.206,0.206,0.206,0.206,0.206,0.246,0.206,0.406,0.406,0.406,0.406,0.406,0.406,0.406,0.406,0.461,0.461,0.406,0.406,0.406,0.406,0.246,0.246,0.246,0.346,0.362,0.262,0.262,0.262,0.262,0.262,0.262,0.351,0.406,0.406,0.306,0.306,0.306,0.306,0.306,0.306,0.306,0.306,0.306,0.306,0.306,0.306,0.306,0.306,0.418,0.418,0.418,0.418,0.418,0.418,0.418,0.418,0.418,0.418,0.418,0.418,0.418,0.418,0.518,0.518,0.518,0.518,0.518,0.518,0.518,0.518,0.518,1.471,1.471,1.471,1.511,1.411,1.651,1.651,1.651,1.662,1.662,1.662,1.662,1.662,1.662,1.794,1.794,1.794,1.794,1.794,1.594,1.634,1.634,1.579,1.499,1.499,1.367,1.367,1.367,1.499,1.499,0.546,0.546,0.546,0.546,0.546,0.546,0.546,0.546,0.546,0.56,0.56,0.56,0.56,0.56,0.56,0.56,0.56,0.56,0.56,0.56,0.56,0.66,0.66,0.66,0.66,0.66,0.66,0.66,0.66,0.66,0.66,0.548,0.548,0.548,0.548,0.548,0.588,0.7,0.7,0.7,0.7,0.7,0.7,0.7,0.7,0.7,0.9,0.9,0.9,0.9,0.9,0.889,0.889,0.889,0.849,0.849,0.849,0.849,0.849,0.86,0.66,0.66,0.7,0.7,0.66,0.66,0.66,0.66,0.66,0.646,0.546,0.546,0.486,0.486,0.526,0.526,0.526,0.526,0.586,0.526,0.526,0.526,0.486,0.446,0.446,0.458,0.458,0.458,0.558,0.546,0.546,0.546,0.546,0.446,0.446,0.446,0.446,0.446,0.446,0.446,0.446,0.446,0.446,0.39,0.39,0.39,0.39,0.39,0.39,0.39,0.49,0.49,0.49,0.49,0.358,0.358,0.358,0.358,0.558,0.558,0.558,0.558,0.558,0.558,0.558,0.558,0.558,0.558,0.558,0.558,0.558,0.558,0.347,0.347,0.347,0.347,0.347,0.347,0.347] useactual=no
new object=loadshape.shape_6 npts=1440 minterval=1 mult=[0.052,0.052,0.052,0.052,0.052,0.052,0.052,0.052,0.052,0.052,0.052,0.052,0.052,0.052,0.052,0.052,0.052,0.052,0.052,0.052,0.052,0.052,0.052,0.052,0.052,0.052,0.052,0.052,0.052,0.052,0.052,0.052,0.052,0.052,0.052,0.052,0.052,0.052,0.052,0.052,0.052,0.052,0.052,0.052,0.052,0.052,0.052,0.052,0.052,0.052,0.052,0.052,0.052,0.052,0.052,0.052,0.052,0.052,0.052,0.052,0.052,0.052,0.052,0.052,0.052,0.052,0.052,0.052,0.052,0.052,0.052,0.052,0.052,0.052,0.052,0.052,0.052,0.052,0.052,0.052,0.052,0.052,0.052,0.052,0.052,0.052,0.284,0.284,0.284,0.284,0.284,0.284,0.284,0.284,0.284,0.284,0.284,0.284,0.284,0.284,0.284,0.284,0.284,0.284,0.284,0.284,0.284,0.284,0.052,0.052,0.052,0.052,0.052,0.052,0.052,0.052,0.052,0.052,0.052,0.052,0.052,0.052,0.052,0.052,0.052,0.052,0.052,0.052,0.052,0.052,0.052,0.052,0.052,0.052,0.052,0.052,0.052,0.052,0.052,0.052,0.052,0.052,0.052,0.052,0.052,0.052,0.052,0.052,0.052,0.052,0.052,0.052,0.052,0.052,0.052,0.052,0.052,0.052,0.052,0.052,0.052,0.052,0.052,0.284,0.284,0.284,0.284,0.284,0.284,0.284,0.284,0.284,0.284,0.284,0.284,0.284,0.284,0.284,0.284,0.284,0.284,0.284,0.284,0.284,0.284,0.052,0.052,0.052,0.052,0.052,0.052,0.052,0.052,0.052,0.052,0.052,0.052,0.052,0.052,0.052,0.052,0.052,0.052,0.052,0.052,0.052,0.052,0.052,0.052,0.052,0.052,0.052,0.052,0.052,0.052,0.052,0.052,0.052,0.052,0.052,0.052,0.052,0.052,0.052,0.052,0.052,0.052,0.052,0.052,0.052,0.052,0.052,0.052,0.052,0.052,0.052,0.052,0.052,0.284,0.284,0.284,0.284,0.284,0.284,0.284,0.284,0.284,0.284,0.284,0.284,0.284,0.284,0.284,0.284,0.284,0.284,0.284,0.284,0.284,0.284,0.052,0.052,0.052,0.052,0.052,0.052,0.052,0.052,0.052,0.052,0.052,0.052,0.052,0.052,0.052,0.052,0.052,0.052,0.052,0.052,0.052,0.052,0.052,0.052,0.052,0.052,0.052,0.052,0.052,0.052,0.052,0.052,0.052,0.052,0.052,0.052,0.052,0.052,0.052,0.052,0.052,0.052,0.052,0.052,0.052,0.052,0.052,0.052,0.052,0.052,0.052,0.052,0.052,0.052,0.052,0.052,0.052,0.052,0.052,0.052,0.052,0.052,0.052,0.052,0.052,0.052,0.052,0.052,0.052,0.052,0.052,0.052,0.052,0.052,0.052,0.052,0.052,0.052,0.052,0.052,0.052,0.052,0.052,0.052,0.052,0.052,0.052,0.052,0.052,0.052,0.052,0.052,0.052,0.052,0.052,0.052,0.052,0.052,0.052,0.052,0.052,0.052,0.052,0.052,0.052,0.052,0.052,0.052,0.052,0.052,0.052,0.052,0.052,0.052,0.052,0.052,0.052,0.052,0.052,0.052,0.052,0.052,0.052,0.052,0.052,0.052,0.052,0.052,0.052,0.052,0.052,0.052,0.052,0.052,0.052,0.052,0.052,0.052,0.052,0.052,0.052,0.284,0.284,0.284,0.284,0.284,0.284,0.284,0.284,0.284,0.296,0.296,0.356,0.356,0.296,0.336,0.324,0.339,0.339,0.339,0.339,0.339,0.339,0.107,0.107,0.107,0.119,0.159,0.199,0.199,0.199,0.156,0.156,0.156,0.156,0.156,0.296,0.196,0.196,0.196,0.196,0.196,0.196,0.196,0.196,0.196,0.279,0.279,0.279,0.279,0.279,0.279,0.239,0.239,0.239,0.239,0.199,0.199,0.199,1.978,2.018,2.018,1.978,1.978,2.028,2.028,1.978,2.078,2.078,2.078,2.078,2.31,2.31,2.31,2.31,2.31,2.31,2.319,2.31,2.31,2.31,2.41,2.31,2.41,2.41,2.41,0.596,0.596,0.646,0.746,0.746,0.746,0.766,0.534,0.434,0.384,0.324,0.324,0.324,0.324,0.364,0.364,0.364,0.376,0.376,0.376,0.476,0.476,0.476,0.476,0.476,0.476,0.476,0.436,0.336,0.336,0.391,0.391,0.371,0.371,0.371,0.371,0.371,0.371,0.371,0.371,0.371,0.371,0.371,0.386,0.386,0.386,0.386,0.386,0.386,0.386,0.386,0.386,0.386,0.386,0.386,0.386,0.386,0.386,0.386,0.462,0.462,0.462,0.462,0.462,0.462,0.462,0.462,0.462,0.407,2.073,2.073,2.073,0.407,0.407,0.407,0.407,0.407,0.395,0.395,0.395,0.395,0.395,0.395,0.627,0.627,0.627,0.627,0.527,0.527,0.527,0.527,0.527,0.527,0.527,0.527,0.527,0.527,0.527,0.527,0.527,0.527,0.515,0.515,0.515,0.515,0.283,0.283,0.283,0.283,0.283,0.283,0.283,0.283,0.283,0.283,0.283,0.268,0.268,0.268,0.192,0.192,0.192,0.192,0.192,0.192,0.192,0.192,0.192,0.227,0.227,0.227,0.127,0.127,0.127,0.127,0.127,0.127,0.127,0.127,0.127,0.127,0.127,0.127,0.127,0.127,0.127,0.127,0.127,0.127,0.127,0.127,0.127,0.127,0.127,0.052,0.052,0.052,0.052,0.052,0.052,0.284,0.284,0.284,0.284,0.284,0.284,0.284,0.284,0.284,0.284,0.284,0.284,0.284,0.284,0.284,0.284,0.284,0.284,0.284,0.284,0.284,0.284,0.052,0.052,0.052,0.052,0.052,0.052,0.052,0.052,0.052,0.052,0.052,0.052,0.052,0.052,0.052,0.052,0.052,0.052,0.052,0.052,0.052,0.052,0.052,0.052,0.052,0.052,0.052,0.052,0.052,0.052,0.052,0.052,0.052,0.052,0.052,0.052,0.052,0.052,0.052,0.052,0.052,0.052,0.052,0.052,0.052,0.052,0.052,0.052,0.052,0.052,0.052,0.052,0.052,0.052,0.052,0.052,0.052,0.052,0.052,0.052,0.052,0.052,0.052,0.052,0.052,0.052,0.052,0.052,0.052,0.052,0.052,0.052,0.052,0.052,0.052,0.052,0.052,0.052,0.052,0.052,0.284,0.284,0.284,0.284,0.284,0.284,0.284,0.284,0.284,0.284,0.284,0.284,0.284,0.284,0.284,0.284,0.284,0.284,0.284,0.284,0.284,0.284,0.052,0.052,0.052,0.052,0.052,0.052,0.052,0.052,0.052,0.052,0.052,0.052,0.052,0.052,0.052,0.052,0.052,0.052,0.052,0.052,0.052,0.052,0.052,0.052,0.052,0.052,0.052,0.052,0.052,0.052,0.052,0.052,0.052,0.052,0.052,0.052,0.052,0.052,0.052,0.052,0.052,0.052,0.052,0.052,0.052,0.052,0.052,0.052,0.052,0.052,0.052,0.052,0.052,0.052,0.052,0.052,0.052,0.052,0.052,0.052,0.052,0.052,0.052,0.284,0.284,0.284,0.284,0.284,0.284,0.284,0.284,0.284,0.284,0.284,0.284,0.284,0.284,0.284,0.284,0.284,0.284,0.284,0.284,0.284,0.284,0.052,0.052,0.052,0.052,0.052,0.052,0.052,0.052,0.052,0.052,0.052,0.052,0.052,0.052,0.052,0.052,0.052,0.052,0.052,0.052,0.052,0.052,0.052,0.052,0.052,0.052,0.052,0.052,0.052,0.052,0.052,0.052,0.052,0.052,0.052,0.052,0.052,0.052,0.052,0.052,0.052,0.052,0.052,0.052,0.052,0.052,0.052,0.052,0.052,0.052,0.052,0.052,0.052,0.052,0.052,0.087,0.087,0.435,0.435,0.435,0.4,0.052,0.052,0.052,0.052,0.052,0.052,0.052,0.052,0.052,0.052,0.081,0.081,0.081,0.081,0.081,0.081,0.313,0.313,0.313,0.313,1.979,1.979,1.979,0.313,0.313,1.979,1.979,1.979,0.313,0.313,0.313,0.313,0.313,0.313,0.313,0.313,0.313,0.313,0.081,0.081,0.116,0.116,0.116,0.116,0.116,0.116,0.116,0.116,0.171,0.171,0.171,0.171,0.171,0.233,0.233,0.233,0.183,0.183,0.183,0.183,0.183,0.183,0.183,0.223,0.183,0.233,0.233,0.233,0.233,0.376,0.321,0.286,0.306,0.306,0.306,0.306,0.306,0.386,0.326,0.306,0.306,0.306,0.306,0.277,0.277,0.277,0.277,0.337,0.569,0.569,0.549,0.549,0.549,0.549,0.549,0.489,0.489,0.489,0.489,0.489,0.489,0.489,0.489,0.489,0.489,0.489,0.489,0.579,0.579,0.579,0.347,0.407,0.407,0.395,0.395,0.395,0.395,0.41,0.41,0.41,0.41,0.43,0.287,0.237,0.237,0.237,0.187,0.187,0.187,0.187,0.187,0.187,0.187,0.167,0.107,0.107,0.127,0.127,0.227,0.256,0.256,0.316,0.316,0.316,0.316,0.356,0.406,0.406,0.406,0.366,0.366,0.366,0.366,0.366,0.366,0.366,0.366,0.366,0.426,0.426,0.376,0.376,0.316,0.316,0.548,0.598,0.598,0.598,0.598,0.598,0.598,0.598,0.698,0.698,0.598,0.598,0.598,0.598,0.598,0.598,0.658,0.608,0.608,0.548,0.548,0.548,0.366,0.366,0.366,0.366,0.351,0.351,0.351,0.351,0.361,0.361,0.261,0.261,0.261,0.261,0.261,0.261,0.261,0.261,0.261,0.261,0.261,0.201,0.201,0.201,0.201,0.201,0.172,0.172,0.172,0.172,0.172,0.172,0.172,0.172,0.172,0.172,0.172,0.184,0.184,0.184,0.184,0.184,0.184,0.184,0.572,0.572,0.572,0.572,0.224,0.184,0.184,0.184,0.416,0.416,0.416,0.416,0.356,0.316,0.316,0.316,0.316,0.316,0.316,0.396,0.396,0.396,0.296,0.296,0.284,0.284,0.284,0.284,0.284,0.284,0.052,0.052,0.052,0.052,0.052,0.052,0.052,0.052,0.052,0.052,0.052,0.052,0.052,0.052,0.052,0.052,0.052,0.052,0.052,0.052,0.052,0.052,0.052,0.052,0.052,0.052,0.052,0.052,0.052,0.052,0.052,0.052,0.052,0.052,0.052,0.052,0.052,0.052,0.052,0.052,0.052,0.052,0.052,0.052,0.052,0.052,0.052,0.052,0.052,0.052,0.052,0.052,0.052,0.052,0.052,0.052,0.052,0.052,0.284,0.284,0.284,0.284,0.284,0.284,0.284,0.284,0.284,0.284,0.284,0.284,0.284,0.284,0.284,0.284,0.284,0.284,0.284,0.284,0.284,0.284,0.052,0.052,0.052,0.052,0.052,0.052,0.052,0.052,0.052,0.052,0.052,0.052,0.052,0.052,0.052,0.052,0.052,0.052,0.052,0.052,0.052,0.052,0.052,0.052,0.052,0.052,0.052,0.052,0.052,0.052,0.052,0.052,0.052,0.052,0.052,0.052,0.052,0.052,0.052,0.052,0.052,0.052,0.052,0.052,0.052,0.052,0.052,0.052,0.052,0.052,0.284,0.284,0.284,0.284,0.284,0.284,0.284,0.284,0.284,0.284,0.284,0.284,0.284,0.284,0.284,0.284,0.284,0.284,0.284,0.284,0.284,0.284,0.052,0.052,0.052,0.052,0.052,0.052,0.052,0.052,0.052,0.052,0.052,0.052,0.052,0.052,0.052,0.052,0.052,0.052,0.052,0.052,0.052,0.052,0.052,0.052,0.052,0.052,0.052,0.052,0.052,0.052,0.052,0.052,0.052,0.052,0.052,0.052,0.052,0.052,0.052,0.052,0.052,0.052,0.052,0.052,0.284,0.284,0.284,0.284,0.284,0.284,0.284,0.284,0.284,0.284,0.284,0.284,0.284,0.284,0.284,0.284,0.284,0.284,0.284,0.284,0.284,0.284,0.052,0.052,0.052,0.052,0.052,0.052,0.052,0.052,0.052,0.052,0.052,0.052,0.052,0.052,0.052,0.052,0.052,0.052,0.052,0.052,0.052,0.052,0.052,0.052,0.052,0.052,0.052,0.052,0.052,0.052,0.052,0.052,0.052,0.052,0.052,0.052,0.052,0.052,0.052,0.052,0.052,0.052,0.052,0.052,0.052,0.052] useactual=no
...